pcf
* control data
restart
   141   2194     19      2      2
     1      2 single point
     5      2    0.3   0.03     10
   1.5    1.5  0.001
   0.1
    30   0.01      5      3   0.01      3
     1      1      1
* group definitions and derivative data
     pcor    relative   0.025  0.025   switch 2 parabolic
     pgrd    relative    0.02  0.001   switch 2 parabolic
      tgr    relative    0.02  0.001   switch 2 parabolic
       tx    relative    0.03    0.1   switch 2 parabolic
       cx    relative  0.0125   0.05   switch 2 parabolic
      cfr    relative    0.02  0.001   switch 2 parabolic
       ts    relative    0.03    0.1   switch 2 parabolic
       lw    relative    0.02  0.001   switch 2 parabolic
       fc    relative   0.025      5   switch 2 parabolic
    fcdel    relative    0.05   0.03   switch 2 parabolic
     beta    relative   0.025   0.05   switch 2 parabolic
       k3    relative    0.03   0.01   switch 2 parabolic
       k2    relative    0.03   0.01   switch 2 parabolic
       k1    relative    0.05  0.005   switch 2 parabolic
     trsh    relative   0.025    0.5   switch 2 parabolic
       k0    relative    0.02  0.001   switch 2 parabolic
     perc    relative    0.02   0.01   switch 2 parabolic
     up_d    relative   0.025   0.05   switch 2 parabolic
    dwn_d    relative   0.025   0.05   switch 2 parabolic
* parameter data
    ELEV0   fixed    factor        248.0000           0.0000       8868.0000      none  1.0000  0.0000
    ELEV1   fixed    factor        332.0000           0.0000       8868.0000      none  1.0000  0.0000
    ELEV2   fixed    factor        371.0000           0.0000       8868.0000      none  1.0000  0.0000
    ELEV3   fixed    factor        399.0000           0.0000       8868.0000      none  1.0000  0.0000
    ELEV4   fixed    factor        424.0000           0.0000       8868.0000      none  1.0000  0.0000
    ELEV5   fixed    factor        449.0000           0.0000       8868.0000      none  1.0000  0.0000
    ELEV6   fixed    factor        474.0000           0.0000       8868.0000      none  1.0000  0.0000
    ELEV7   fixed    factor        501.0000           0.0000       8868.0000      none  1.0000  0.0000
    ELEV8   fixed    factor        528.0000           0.0000       8868.0000      none  1.0000  0.0000
    ELEV9   fixed    factor        574.0000           0.0000       8868.0000      none  1.0000  0.0000
   ELEV10   fixed    factor        740.0000           0.0000       8868.0000      none  1.0000  0.0000
   NEDNIV   fixed    factor          0.0000           0.0000         10.0000      none  1.0000  0.0000
  FLDAREA   fixed    factor        183.0000           0.0010     999999.0000      none  1.0000  0.0000
    AREA1   fixed    factor         18.3000           0.0010     999999.0000      none  1.0000  0.0000
    AREA2   fixed    factor         18.3000           0.0010     999999.0000      none  1.0000  0.0000
    AREA3   fixed    factor         18.3000           0.0010     999999.0000      none  1.0000  0.0000
    AREA4   fixed    factor         18.3000           0.0010     999999.0000      none  1.0000  0.0000
    AREA5   fixed    factor         18.3000           0.0010     999999.0000      none  1.0000  0.0000
    AREA6   fixed    factor         18.3000           0.0010     999999.0000      none  1.0000  0.0000
    AREA7   fixed    factor         18.3000           0.0010     999999.0000      none  1.0000  0.0000
    AREA8   fixed    factor         18.3000           0.0010     999999.0000      none  1.0000  0.0000
    AREA9   fixed    factor         18.3000           0.0010     999999.0000      none  1.0000  0.0000
   AREA10   fixed    factor         18.3000           0.0010     999999.0000      none  1.0000  0.0000
  ELEVTMP   fixed    factor        256.0000           0.0000       8868.0000      none  1.0000  0.0000
  ELEVPRC   fixed    factor        256.0000           0.0000       8868.0000      none  1.0000  0.0000
    GLAC1   fixed    factor          0.0000           0.0000          1.0000      none  1.0000  0.0000
    GLAC2   fixed    factor          0.0000           0.0000          1.0000      none  1.0000  0.0000
    GLAC3   fixed    factor          0.0000           0.0000          1.0000      none  1.0000  0.0000
    GLAC4   fixed    factor          0.0000           0.0000          1.0000      none  1.0000  0.0000
    GLAC5   fixed    factor          0.0000           0.0000          1.0000      none  1.0000  0.0000
    GLAC6   fixed    factor          0.0000           0.0000          1.0000      none  1.0000  0.0000
    GLAC7   fixed    factor          0.0000           0.0000          1.0000      none  1.0000  0.0000
    GLAC8   fixed    factor          0.0000           0.0000          1.0000      none  1.0000  0.0000
    GLAC9   fixed    factor          0.0000           0.0000          1.0000      none  1.0000  0.0000
   GLAC10   fixed    factor          0.0000           0.0000          1.0000      none  1.0000  0.0000
     RCOR     log    factor           0.9390          0.3000          1.6000      pcor    1.0000    0.0000
     SCOR     log    factor           0.8600          0.3000          2.5000      pcor    1.0000    0.0000
       TX     log    factor           5.4950          1.0000         12.0000        tx    1.0000   -4.0000
     TPGR   fixed    factor          -0.5000         -3.0000          3.0000       tgr    1.0000    0.0000
     TCGR   fixed    factor          -1.0000         -3.0000          3.0000       tgr    1.0000    0.0000
     PGRD   fixed    factor           0.0500         -0.0003          0.0010      pgrd    1.0000    0.0000
     S100   fixed    factor          2.0000           0.0000         10.0000      none  1.0000  0.0000
      S75   fixed    factor          1.5000           0.0000         10.0000      none  1.0000  0.0000
      S50   fixed    factor          1.0000           0.0000         10.0000      none  1.0000  0.0000
      S25   fixed    factor          0.5000           0.0000         10.0000      none  1.0000  0.0000
      S00   fixed    factor          0.0000           0.0000         10.0000      none  1.0000  0.0000
    SL100   fixed    factor          1.5000           0.0000         10.0000      none  1.0000  0.0000
     SL75   fixed    factor          1.2500           0.0000         10.0000      none  1.0000  0.0000
     SL50   fixed    factor          1.0000           0.0000         10.0000      none  1.0000  0.0000
     SL25   fixed    factor          0.7500           0.0000         10.0000      none  1.0000  0.0000
     SL00   fixed    factor          0.5000           0.0000         10.0000      none  1.0000  0.0000
  MAXUNIF   fixed    factor         20.0000           0.0000       1000.0000      none  1.0000  0.0000
       CX     log    factor           3.5840          0.3000         25.0000        cx    1.0000    0.0000
      CXN   fixed    factor          2.3890           0.3000         25.0000        cx  1.0000  0.0000
  CXN_DCX    none    factor           0.6666          0.2000          1.0000     dwn_d    1.0000    0.0000
       TS     log    factor           3.0890          1.0000         12.0000        ts    1.0000   -4.0000
      TSN     log    factor           3.0900          1.0000         12.0000        ts    1.0000   -4.0000
      CFR   fixed    factor          0.0100           0.0000          1.0000       cfr  1.0000  0.0000
       LW   fixed    factor          0.0700           0.0000          0.3000        lw  1.0000  0.0000
     NDAG   fixed    factor        270.0000           0.0000        365.0000      none  1.0000  0.0000
     CBRE   fixed    factor           2.0000          1.0000          8.0000        cx    1.0000    0.0000
    ISNW1   fixed    factor          0.0000           0.0000       1000.0000      none  1.0000  0.0000
    ISNW2   fixed    factor          0.0000           0.0000       1000.0000      none  1.0000  0.0000
    ISNW3   fixed    factor          0.0000           0.0000       1000.0000      none  1.0000  0.0000
    ISNW4   fixed    factor          0.0000           0.0000       1000.0000      none  1.0000  0.0000
    ISNW5   fixed    factor          0.0000           0.0000       1000.0000      none  1.0000  0.0000
    ISNW6   fixed    factor          0.0000           0.0000       1000.0000      none  1.0000  0.0000
    ISNW7   fixed    factor          0.0000           0.0000       1000.0000      none  1.0000  0.0000
    ISNW8   fixed    factor          0.0000           0.0000       1000.0000      none  1.0000  0.0000
    ISNW9   fixed    factor          0.0000           0.0000       1000.0000      none  1.0000  0.0000
   ISNW10   fixed    factor          0.0000           0.0000       1000.0000      none  1.0000  0.0000
    ISWW1   fixed    factor          0.0000           0.0000       1000.0000      none  1.0000  0.0000
    ISWW2   fixed    factor          0.0000           0.0000       1000.0000      none  1.0000  0.0000
    ISWW3   fixed    factor          0.0000           0.0000       1000.0000      none  1.0000  0.0000
    ISWW4   fixed    factor          0.0000           0.0000       1000.0000      none  1.0000  0.0000
    ISWW5   fixed    factor          0.0000           0.0000       1000.0000      none  1.0000  0.0000
    ISWW6   fixed    factor          0.0000           0.0000       1000.0000      none  1.0000  0.0000
    ISWW7   fixed    factor          0.0000           0.0000       1000.0000      none  1.0000  0.0000
    ISWW8   fixed    factor          0.0000           0.0000       1000.0000      none  1.0000  0.0000
    ISWW9   fixed    factor          0.0000           0.0000       1000.0000      none  1.0000  0.0000
   ISWW10   fixed    factor          0.0000           0.0000       1000.0000      none  1.0000  0.0000
   ISCOV1   fixed    factor          0.0000           0.0000          1.0000      none  1.0000  0.0000
   ISCOV2   fixed    factor          0.0000           0.0000          1.0000      none  1.0000  0.0000
   ISCOV3   fixed    factor          0.0000           0.0000          1.0000      none  1.0000  0.0000
   ISCOV4   fixed    factor          0.0000           0.0000          1.0000      none  1.0000  0.0000
   ISCOV5   fixed    factor          0.0000           0.0000          1.0000      none  1.0000  0.0000
   ISCOV6   fixed    factor          0.0000           0.0000          1.0000      none  1.0000  0.0000
   ISCOV7   fixed    factor          0.0000           0.0000          1.0000      none  1.0000  0.0000
   ISCOV8   fixed    factor          0.0000           0.0000          1.0000      none  1.0000  0.0000
   ISCOV9   fixed    factor          0.0000           0.0000          1.0000      none  1.0000  0.0000
  ISCOV10   fixed    factor          0.0000           0.0000          1.0000      none  1.0000  0.0000
    IBAL1   fixed    factor          0.0000           0.0000          1.0000      none  1.0000  0.0000
    IBAL2   fixed    factor          0.0000           0.0000          1.0000      none  1.0000  0.0000
    IBAL3   fixed    factor          0.0000           0.0000          1.0000      none  1.0000  0.0000
    IBAL4   fixed    factor          0.0000           0.0000          1.0000      none  1.0000  0.0000
    IBAL5   fixed    factor          0.0000           0.0000          1.0000      none  1.0000  0.0000
    IBAL6   fixed    factor          0.0000           0.0000          1.0000      none  1.0000  0.0000
    IBAL7   fixed    factor          0.0000           0.0000          1.0000      none  1.0000  0.0000
    IBAL8   fixed    factor          0.0000           0.0000          1.0000      none  1.0000  0.0000
    IBAL9   fixed    factor          0.0000           0.0000          1.0000      none  1.0000  0.0000
   IBAL10   fixed    factor          0.0000           0.0000          1.0000      none  1.0000  0.0000
    EPJAN   fixed    factor          0.1000           0.0000         10.0000      none  1.0000  0.0000
    EPFEB   fixed    factor          0.2000           0.0000         10.0000      none  1.0000  0.0000
    EPMAR   fixed    factor          0.7000           0.0000         10.0000      none  1.0000  0.0000
    EPAPR   fixed    factor          1.0000           0.0000         10.0000      none  1.0000  0.0000
    EPMAY   fixed    factor          2.3000           0.0000         10.0000      none  1.0000  0.0000
    EPJUN   fixed    factor          3.5000           0.0000         10.0000      none  1.0000  0.0000
    EPJUL   fixed    factor          3.5000           0.0000         10.0000      none  1.0000  0.0000
    EPAUG   fixed    factor          2.3000           0.0000         10.0000      none  1.0000  0.0000
    EPSEP   fixed    factor          1.0000           0.0000         10.0000      none  1.0000  0.0000
    EPOCT   fixed    factor          0.7000           0.0000         10.0000      none  1.0000  0.0000
    EPNOV   fixed    factor          0.2000           0.0000         10.0000      none  1.0000  0.0000
    EPDEC   fixed    factor          0.1000           0.0000         10.0000      none  1.0000  0.0000
       FC     log    factor          26.8000          5.0000       1500.0000        fc    1.0000    0.0000
    FCDEL    none    factor           1.0000          0.1000          1.0000     fcdel    1.0000    0.0000
     BETA     log    factor           1.5750          0.1000         12.0000      beta    1.0000    0.0000
   INFMAX   fixed    factor         50.0000           0.0000       5000.0000      none  1.0000  0.0000
      ISM    tied    factor         20.0580           50.0000      1500.0000      none  1.0000  0.0000
     KUZ2   fixed    factor          0.7250           0.1000          1.0000        k3  1.0000  0.0000
     KUZ1   fixed    factor          0.3380           0.1000          1.0000        k2  1.0000  0.0000
      KUZ   fixed    factor          0.0960           0.0100          0.6000        k1  1.0000  0.0000
      KLZ     log    factor           0.0430          0.0010          0.1500        k0    1.0000    0.0000
  KUZ2_D1    none    factor           2.1450          1.0000        150.0000      up_d    1.0000    0.0000
  KUZ1_D0    none    factor           3.5208          1.0000        150.0000      up_d    1.0000    0.0000
   KUZ_DL    none    factor           2.2326          1.0000        150.0000      up_d    1.0000    0.0000
     PERC    none    factor           1.9600          1.0000          6.0000      perc    1.0000   -1.0000
      UZ2   fixed    factor         40.5400           5.0000        500.0000      trsh  1.0000  0.0000
      UZ1     log    factor          21.5000          5.0000        100.0000      trsh    1.0000    0.0000
   UZ2_D1    none    factor           1.8856          1.0000        100.0000      up_d    1.0000    0.0000
   SJODEL   fixed    factor          0.0000           0.0000          1.0000      none  1.0000  0.0000
   MAGDEL   fixed    factor          0.0000           0.0000          1.0000      none  1.0000  0.0000
    OPPTR   fixed    factor          1.0000           0.0000          2.5000      none  1.0000  0.0000
  EQLAKEA   fixed    factor          0.0000           0.0000     999999.0000      none  1.0000  0.0000
  RATCNST   fixed    factor          0.0000           0.0000        100.0000      none  1.0000  0.0000
  RATZERO   fixed    factor          0.0000           0.0000        100.0000      none  1.0000  0.0000
  RATEXPN   fixed    factor          1.5000           0.0000        100.0000      none  1.0000  0.0000
  CATFACT   fixed    factor          0.0000           0.0000        100.0000      none  1.0000  0.0000
   PARDSP   fixed    factor          0.0000           0.0000          2.0000      none  1.0000  0.0000
      IUZ   fixed    factor          0.0000           0.0000        100.0000      none  1.0000  0.0000
      ILZ   fixed    factor          0.0000           0.0000        100.0000      none  1.0000  0.0000
   LAKLEV   fixed    factor          0.0000           0.0000       9999.0000      none  1.0000  0.0000
  ISM     FC
* observation groups
runf
diff
* observation data
0001     1.8026    0.0000 runf
0002     1.3899    0.0000 runf
0003     1.1898    0.0000 runf
0004     1.0386    0.0000 runf
0005     0.9208    0.0000 runf
0006     0.7907    0.0000 runf
0007     0.7046    0.0000 runf
0008     0.6498    0.0000 runf
0009     0.6217    0.0000 runf
0010     0.6562    0.0000 runf
0011     0.7272    0.0000 runf
0012     0.7971    0.0000 runf
0013     0.8824    0.0000 runf
0014     0.8071    0.0000 runf
0015     0.7863    0.0000 runf
0016     0.8038    0.0000 runf
0017     1.1287    0.0000 runf
0018     3.0795    0.0000 runf
0019     6.8251    0.0000 runf
0020     9.0048    0.0000 runf
0021     8.2540    0.0000 runf
0022    11.8686    0.0000 runf
0023    13.8763    0.0000 runf
0024    11.8726    0.0000 runf
0025    10.9539    0.0000 runf
0026    10.5226    0.0000 runf
0027    10.6940    0.0000 runf
0028     8.5385    0.0000 runf
0029     6.6031    0.0000 runf
0030     5.9134    0.0000 runf
0031     5.8075    0.0000 runf
0032     6.3345    0.0000 runf
0033     8.2305    0.0000 runf
0034     9.5250    0.0000 runf
0035     8.1431    0.0000 runf
0036     5.7741    0.0000 runf
0037     4.1498    0.0000 runf
0038     3.2452    0.0000 runf
0039     2.6479    0.0000 runf
0040     2.3010    0.0000 runf
0041     2.1485    0.0000 runf
0042     2.8369    0.0000 runf
0043     3.9388    0.0000 runf
0044     4.3782    0.0000 runf
0045     3.6764    0.0000 runf
0046     2.8777    0.0000 runf
0047     2.3022    0.0000 runf
0048     1.8790    0.0000 runf
0049     1.5984    0.0000 runf
0050     1.3781    0.0000 runf
0051     1.2048    0.9634 runf
0052     1.1483    0.9727 runf
0053     1.2247    0.9603 runf
0054     1.8066    0.8884 runf
0055     4.9974    0.7249 runf
0056    11.1432    0.6174 runf
0057    11.2522    0.6162 runf
0058     8.4549    0.6525 runf
0059     5.1934    0.7193 runf
0060     3.8070    0.7654 runf
0061     4.3179    0.7464 runf
0062     7.0342    0.6770 runf
0063    11.3235    0.6155 runf
0064    11.1791    0.6170 runf
0065     8.0204    0.6594 runf
0066     5.5855    0.7089 runf
0067     5.4028    0.7136 runf
0068     9.7174    0.6346 runf
0069    10.1452    0.6291 runf
0070     7.1277    0.6752 runf
0071     4.9575    0.7260 runf
0072     3.6668    0.7712 runf
0073     2.8629    0.8103 runf
0074     2.3201    0.8451 runf
0075     1.9693    0.8732 runf
0076     1.6891    0.9005 runf
0077     1.5212    0.9195 runf
0078     1.3780    0.9379 runf
0079     1.2733    0.9528 runf
0080     1.2376    0.9583 runf
0081     1.0946    0.9821 runf
0082     0.9131    1.0184 runf
0083     0.8892    1.0238 runf
0084     0.8413    1.0352 runf
0085     0.9122    1.0185 runf
0086     2.0916    0.8628 runf
0087     4.0268    0.7568 runf
0088     7.0932    0.6758 runf
0089    10.0364    0.6305 runf
0090    18.6705    0.5569 runf
0091    18.4081    0.5585 runf
0092    16.0473    0.5740 runf
0093    11.7988    0.6104 runf
0094     7.5859    0.6668 runf
0095     5.0331    0.7238 runf
0096     3.5090    0.7780 runf
0097     2.9004    0.8082 runf
0098     4.6998    0.7338 runf
0099     6.4629    0.6885 runf
0100    10.6807    0.6227 runf
0101    18.8839    0.5556 runf
0102    14.0912    0.5891 runf
0103     8.0401    0.6591 runf
0104     4.9613    0.7259 runf
0105     3.8262    0.7646 runf
0106     2.9734    0.8042 runf
0107     2.1295    0.8597 runf
0108     2.1355    0.8592 runf
0109     2.5674    0.8281 runf
0110     2.5674    0.8281 runf
0111     2.5674    0.8281 runf
0112     2.5674    0.8281 runf
0113     2.1017    0.8620 runf
0114     1.6311    0.9068 runf
0115     4.8486    0.7293 runf
0116    20.9350    0.5443 runf
0117    23.2389    0.5330 runf
0118    13.8912    0.5908 runf
0119     7.9100    0.6612 runf
0120     4.9933    0.7250 runf
0121     3.6131    0.7734 runf
0122     2.9143    0.8074 runf
0123     2.3419    0.8435 runf
0124     2.3378    0.8438 runf
0125     3.1782    0.7935 runf
0126     4.9485    0.7263 runf
0127     5.1434    0.7207 runf
0128     8.0078    0.6596 runf
0129    14.7120    0.5841 runf
0130    15.8969    0.5751 runf
0131    15.6159    0.5771 runf
0132    11.1031    0.6179 runf
0133     7.6744    0.6653 runf
0134     7.0357    0.6769 runf
0135     7.2156    0.6735 runf
0136     6.1402    0.6956 runf
0137     4.6311    0.7360 runf
0138     3.4218    0.7819 runf
0139     3.0288    0.8012 runf
0140     3.3749    0.7841 runf
0141     3.7099    0.7694 runf
0142     3.8218    0.7648 runf
0143     3.2255    0.7912 runf
0144     2.7958    0.8141 runf
0145     2.4024    0.8392 runf
0146     2.0090    0.8698 runf
0147     1.6155    0.9085 runf
0148     1.2412    0.9577 runf
0149     1.0931    0.9824 runf
0150     1.0131    0.9974 runf
0151     1.3071    0.9478 runf
0152     2.5015    0.8325 runf
0153     3.3036    0.7874 runf
0154     3.3805    0.7838 runf
0155     2.7233    0.8184 runf
0156     2.3515    0.8428 runf
0157     2.1007    0.8620 runf
0158     3.5474    0.7763 runf
0159     6.9680    0.6782 runf
0160    11.2883    0.6158 runf
0161    12.2025    0.6063 runf
0162     9.0356    0.6439 runf
0163     6.7379    0.6828 runf
0164     8.7255    0.6484 runf
0165     9.7846    0.6337 runf
0166    10.1390    0.6292 runf
0167     7.4580    0.6691 runf
0168     5.0817    0.7224 runf
0169     3.7453    0.7679 runf
0170     2.8347    0.8119 runf
0171     2.2981    0.8467 runf
0172     1.9412    0.8758 runf
0173     1.7269    0.8965 runf
0174     1.6185    0.9082 runf
0175     1.4397    0.9297 runf
0176     1.1935    0.9652 runf
0177     1.1521    0.9721 runf
0178     1.1373    0.9746 runf
0179     1.0491    0.9905 runf
0180     1.2076    0.9630 runf
0181     6.3569    0.6908 runf
0182    11.8284    0.6101 runf
0183     9.5390    0.6369 runf
0184     6.2900    0.6923 runf
0185     4.7661    0.7318 runf
0186     3.5691    0.7753 runf
0187     2.6210    0.8247 runf
0188     2.7784    0.8152 runf
0189     5.5073    0.7109 runf
0190     6.9000    0.6796 runf
0191     6.1757    0.6948 runf
0192     4.8687    0.7286 runf
0193     3.8221    0.7648 runf
0194     3.0321    0.8010 runf
0195     2.5305    0.8305 runf
0196     2.5024    0.8324 runf
0197     2.1438    0.8585 runf
0198     2.5402    0.8299 runf
0199     2.1313    0.8595 runf
0200     1.9558    0.8745 runf
0201     2.0957    0.8625 runf
0202     2.7134    0.8190 runf
0203     5.0564    0.7232 runf
0204     7.3868    0.6704 runf
0205     6.9597    0.6784 runf
0206     5.1325    0.7210 runf
0207     3.7964    0.7658 runf
0208     3.0106    0.8022 runf
0209     2.4296    0.8373 runf
0210     1.9824    0.8721 runf
0211     1.7099    0.8983 runf
0212     1.4852    0.9239 runf
0213     1.4251    0.9316 runf
0214     1.5016    0.9219 runf
0215     1.8710    0.8822 runf
0216     2.3935    0.8398 runf
0217     2.8373    0.8117 runf
0218     2.5821    0.8272 runf
0219     2.3330    0.8441 runf
0220     2.4202    0.8380 runf
0221     3.4794    0.7793 runf
0222     4.3834    0.7441 runf
0223     4.4375    0.7423 runf
0224     4.1946    0.7507 runf
0225     4.0192    0.7571 runf
0226     3.8768    0.7626 runf
0227     4.0879    0.7546 runf
0228     4.3776    0.7443 runf
0229     4.3858    0.7440 runf
0230     4.1342    0.7529 runf
0231     5.2307    0.7183 runf
0232     6.4093    0.6897 runf
0233     7.5879    0.6668 runf
0234     8.7665    0.6478 runf
0235     9.9451    0.6317 runf
0236    11.1237    0.6177 runf
0237    10.9415    0.6197 runf
0238     8.3324    0.6544 runf
0239     6.1954    0.6944 runf
0240     5.0476    0.7234 runf
0241     4.7892    0.7311 runf
0242     4.8393    0.7295 runf
0243     5.0297    0.7239 runf
0244     4.8175    0.7302 runf
0245     4.2870    0.7474 runf
0246     3.7267    0.7687 runf
0247     3.2888    0.7881 runf
0248     2.7952    0.8142 runf
0249     2.3066    0.8461 runf
0250     1.8961    0.8799 runf
0251     1.6026    0.9100 runf
0252     1.3433    0.9427 runf
0253     1.1599    0.9708 runf
0254     0.9811    1.0038 runf
0255     0.8277    1.0385 runf
0256     0.6982    1.0745 runf
0257     0.6185    1.1008 runf
0258     0.5326    1.1343 runf
0259     0.4446    1.1760 runf
0260     0.4490    1.1737 runf
0261     0.5721    1.1182 runf
0262     0.6985    1.0744 runf
0263     0.9827    1.0035 runf
0264     1.3824    0.9373 runf
0265     1.4610    0.9270 runf
0266     1.4055    0.9342 runf
0267     1.2928    0.9499 runf
0268     1.1898    0.9658 runf
0269     1.1559    0.9714 runf
0270     1.3592    0.9405 runf
0271     4.5619    0.7382 runf
0272     9.9952    0.6310 runf
0273     9.8769    0.6325 runf
0274     6.5603    0.6865 runf
0275     4.3352    0.7458 runf
0276     3.4704    0.7797 runf
0277     3.0854    0.7982 runf
0278     2.8233    0.8125 runf
0279     2.3930    0.8399 runf
0280     1.9913    0.8713 runf
0281     1.6809    0.9014 runf
0282     1.3900    0.9363 runf
0283     1.1528    0.9720 runf
0284     0.9772    1.0046 runf
0285     0.8276    1.0386 runf
0286     0.7672    1.0544 runf
0287     0.7771    1.0517 runf
0288     0.9111    1.0188 runf
0289     0.9807    1.0039 runf
0290     1.1119    0.9790 runf
0291     0.9771    1.0046 runf
0292     0.9597    1.0083 runf
0293     0.7838    1.0499 runf
0294     0.6917    1.0765 runf
0295     0.6498    1.0901 runf
0296     0.6498    1.0901 runf
0297     1.5098    0.9209 runf
0298     4.2296    0.7494 runf
0299     5.4346    0.7128 runf
0300     4.5057    0.7400 runf
0301     3.5383    0.7767 runf
0302     2.7292    0.8181 runf
0303     2.1675    0.8567 runf
0304     1.7811    0.8910 runf
0305     1.6226    0.9077 runf
0306     1.5880    0.9117 runf
0307     1.4490    0.9285 runf
0308     1.3312    0.9444 runf
0309     1.1488    0.9726 runf
0310     0.9739    1.0053 runf
0311     0.8316    1.0376 runf
0312     0.6756    1.0816 runf
0313     0.5542    1.1253 runf
0314     0.6227    1.0994 runf
0315     2.4109    0.8386 runf
0316     7.1410    0.6749 runf
0317     6.8052    0.6814 runf
0318     4.5444    0.7388 runf
0319     3.0945    0.7978 runf
0320     2.2712    0.8487 runf
0321     1.7398    0.8952 runf
0322     1.4593    0.9272 runf
0323     1.3822    0.9373 runf
0324     1.1452    0.9732 runf
0325     0.9387    1.0127 runf
0326     0.7808    1.0507 runf
0327     0.6659    1.0847 runf
0328     0.5748    1.1171 runf
0329     0.5085    1.1448 runf
0330     0.5851    1.1132 runf
0331     0.9277    1.0151 runf
0332     1.4115    0.9334 runf
0333     1.7265    0.8965 runf
0334     1.7970    0.8894 runf
0335     1.6241    0.9076 runf
0336     1.4021    0.9346 runf
0337     1.1785    0.9677 runf
0338     0.9990    1.0002 runf
0339     0.8213    1.0401 runf
0340     0.6822    1.0795 runf
0341     0.5692    1.1193 runf
0342     0.4533    1.1715 runf
0343     0.3922    1.2058 runf
0344     0.3506    1.2332 runf
0345     0.3520    1.2323 runf
0346     0.4070    1.1970 runf
0347     0.4330    1.1822 runf
0348     0.4135    1.1932 runf
0349     0.4254    1.1864 runf
0350     1.7213    0.8971 runf
0351     3.0143    0.8020 runf
0352     3.3738    0.7841 runf
0353     2.8148    0.8130 runf
0354     2.3969    0.8396 runf
0355     4.2195    0.7498 runf
0356     6.7467    0.6826 runf
0357     6.8749    0.6801 runf
0358     4.6883    0.7342 runf
0359     3.2962    0.7878 runf
0360     2.3539    0.8426 runf
0361     1.8625    0.8830 runf
0362     1.4814    0.9244 runf
0363     1.3341    0.9440 runf
0364     1.3434    0.9427 runf
0365     1.3529    0.9413 runf
0366     1.3624    0.9400 runf
0367     1.3719    0.9387 runf
0368     1.3814    0.9374 runf
0369     1.3909    0.9361 runf
0370     1.4003    0.9349 runf
0371     1.4098    0.9336 runf
0372     1.4193    0.9324 runf
0373     2.3190    0.8452 runf
0374     4.0090    0.7575 runf
0375     4.3292    0.7460 runf
0376     3.9898    0.7582 runf
0377     3.0689    0.7991 runf
0378     2.3400    0.8436 runf
0379     1.8967    0.8798 runf
0380     1.5298    0.9185 runf
0381     1.4857    0.9239 runf
0382     2.8540    0.8108 runf
0383     4.6959    0.7339 runf
0384     5.6892    0.7063 runf
0385     6.6951    0.6837 runf
0386     6.4461    0.6889 runf
0387     5.0206    0.7242 runf
0388     3.7074    0.7695 runf
0389     2.9332    0.8064 runf
0390     2.1970    0.8543 runf
0391     1.7888    0.8902 runf
0392     1.5295    0.9185 runf
0393     1.4497    0.9284 runf
0394     3.2992    0.7876 runf
0395    15.3592    0.5791 runf
0396    17.9922    0.5610 runf
0397    10.8483    0.6208 runf
0398     6.5485    0.6867 runf
0399     4.1747    0.7514 runf
0400     3.4850    0.7790 runf
0401     3.3688    0.7843 runf
0402     3.5265    0.7772 runf
0403     3.9399    0.7602 runf
0404     3.9872    0.7583 runf
0405     3.8091    0.7653 runf
0406     4.3524    0.7452 runf
0407     9.4814    0.6377 runf
0408    20.0894    0.5488 runf
0409    20.0969    0.5487 runf
0410    15.7464    0.5762 runf
0411    11.8501    0.6099 runf
0412     8.0129    0.6595 runf
0413     6.6120    0.6854 runf
0414     6.7035    0.6835 runf
0415     9.6933    0.6349 runf
0416    13.5852    0.5935 runf
0417    11.6454    0.6120 runf
0418    10.6280    0.6233 runf
0419     9.0810    0.6432 runf
0420     9.4228    0.6385 runf
0421     9.0648    0.6435 runf
0422     9.8348    0.6331 runf
0423     9.9821    0.6312 runf
0424     8.1575    0.6572 runf
0425    11.3447    0.6152 runf
0426    17.5018    0.5641 runf
0427    33.7229    0.4948 runf
0428    28.1601    0.5129 runf
0429    20.8242    0.5449 runf
0430    21.0600    0.5436 runf
0431    24.9490    0.5255 runf
0432    19.6734    0.5511 runf
0433    14.9397    0.5823 runf
0434    10.8146    0.6212 runf
0435    10.8023    0.6213 runf
0436    14.0121    0.5898 runf
0437    17.6361    0.5633 runf
0438    13.7232    0.5923 runf
0439    17.4320    0.5646 runf
0440    29.3441    0.5087 runf
0441    23.6157    0.5313 runf
0442    14.5776    0.5851 runf
0443    10.0282    0.6306 runf
0444    13.4037    0.5951 runf
0445    15.9535    0.5747 runf
0446    14.5024    0.5857 runf
0447    16.7234    0.5693 runf
0448    28.1652    0.5129 runf
0449    24.5190    0.5274 runf
0450    27.5212    0.5153 runf